Circuit: * Z:\home\ahagen\scholarship\nucl_563\power_harvester_with_lt1585.asc

pcb:tload: using linear interpolation because trytocompact option specified
x1:tpzt: using linear interpolation because trytocompact option specified
Unknown node in .ic card: "out" -- ignoring
.OP point found by inspection.
.step freq=500000
.step freq=750000
.step freq=1e+006
.step freq=1.25e+006
.step freq=1.5e+006
.step freq=1.75e+006
.step freq=2e+006
.step freq=2.25e+006
.step freq=2.5e+006

Date: Thu Apr 27 12:31:32 2017
Total elapsed time: 19.968 seconds.

tnom = 27
temp = 27
method = modified trap
totiter = 54388
traniter = 54388
tranpoints = 12036
accept = 8525
rejected = 3511
matrix size = 27
fillins = 25
solver = Normal
Matrix Compiler1: 2.87 KB object code size  1.7/1.3/[0.6]
Matrix Compiler2: 2.53 KB object code size  0.7/1.2/[0.5]

